tests/src/test/resources/files/cases/3_objective_functions/3_4_min_cost/network_2nodes_4_parallel_lines.uct
##C 2007.05.01
##N
##ZBE
BBE1AA1  BE1          0 2 400.00 1000.00 0.00000 0.00000 0.00000 9000.00 -9000.0 9000.00 -9000.0
##ZFR
FFR1AA1  FR1          0 2 400.00 0.00000 0.00000 -1000.0 0.00000 9000.00 -9000.0 9000.00 -9000.0
##L
BBE1AA1  FFR1AA1  1 0 0.0000 10.000 0.000000   5000
BBE1AA1  FFR1AA1  2 8 0.0000 10.000 0.000000   5000
BBE1AA1  FFR1AA1  3 8 0.0000 10.000 0.000000   5000
BBE1AA1  FFR1AA1  4 8 0.0000 10.000 0.000000   5000
